data_image0
_chemical_formula_structural       OLiX2OLiX2OLiX2OLiX2OMnX2OLiX2OMnX2OLiX2OLiX2OMnX2OLiX2OLiX2OLiX2OMnX2OLiX2OLiX2OMnX2OLiX2OLiX2OLiX2OMnX2OMnX2OLiX2OMnX2OMnX2OMnX2OLiX2OMnX2OLiX2OLiX2OLiX2OMnX2OMnX2OLiX2OLiX2OLiX2OLiX2OMnX2OLiX2OMnX2OMnX2OLiX2OLiX2OLiX2OLiX2OLiX2OLiX2OLiX2OLiX2OLiX2OLiX2OMnX2OLiX2OMnX2OLiX2OLiX2OLiX2OLiX2OLiX2OLiX2OLiX2OMnX2OLiX2OLiX2OLiX2OLiX2OLiX2OMnX2OLiX2OMnX2OLiX2OMnX2OLiX2OLiX2OLiX2OLiX2OMnX2OLiX2OMnX2OMnX2OLiX2OLiX2OLiX2OLiX2OLiX2OMnX2OMnX2OMnX2OMnX2OMnX2OLiX2OLiX2OMnX2OLiX2OMnX2OLiX2OMnX2OLiX2OLiX2OMnX2OMnX2OLiX2OLiX2OMnX2OLiX2OLiX2OMnX2OMnX2OLiX2OMnX2OMnX2OLiX2OLiX2OMnX2OLiX2OLiX2OLiX2OMnX2OLiX2OLiX2OLiX2OLiX2OLiX2OLiX2OLiX2OLiX2OMnX2OMnX2OLiX2OMnX2OLiX2OMnX2OLiX2OLiX2OMnX2OLiX2OLiX2OLiX2OMnX2OLiX2OLiX2OMnX2OMnX2OLiX2OLiX2OLiX2OMnX2OMnX2OLiX2OLiX2OMnX2OLiX2OLiX2OMnX2OLiX2OLiX2OLiX2OLiX2OLiX2OLiX2OMnX2OLiX2OLiX2OMnX2OLiX2OLiX2OLiX2OLiX2OMnX2OMnX2OMnX2OMnX2OMnX2OLiX2OMnX2OMnX2OLiX2OMnX2OMnX2OLiX2OLiX2OLiX2OLiX2OLiX2OMnX2OLiX2OMnX2OLiX2OLiX2OLiX2OLiX2OLiX2OLiX2OLiX2OLiX2OLiX2OLiX2OLiX2OLiX2OLiX2OMnX2OMnX2OLiX2OLiX2OLiX2OLiX2OMnX2OLiX2OLiX2OMnX2OLiX2OLiX2OLiX2OLiX2OMnX2OLiX2
_chemical_formula_sum              "O216 Li144 X432 Mn72"
_cell_length_a       17.6791
_cell_length_b       17.6791
_cell_length_c       17.6791
_cell_angle_alpha    60
_cell_angle_beta     60
_cell_angle_gamma    60

_space_group_name_H-M_alt    "P 1"
_space_group_IT_number       1

loop_
  _space_group_symop_operation_xyz
  'x, y, z'

loop_
  _atom_site_type_symbol
  _atom_site_label
  _atom_site_symmetry_multiplicity
  _atom_site_fract_x
  _atom_site_fract_y
  _atom_site_fract_z
  _atom_site_occupancy
  O   O1        1.0  0.00000  0.00000  0.00000  1.0000
  Li  Li1       1.0  0.08333  0.08333  0.08333  1.0000
  X   X1        1.0  0.04167  0.04167  0.04167  1.0000
  X   X2        1.0  0.12500  0.12500  0.12500  1.0000
  O   O2        1.0  0.00000  0.00000  0.16667  1.0000
  Li  Li2       1.0  0.08333  0.08333  0.25000  1.0000
  X   X3        1.0  0.04167  0.04167  0.20833  1.0000
  X   X4        1.0  0.12500  0.12500  0.29167  1.0000
  O   O3        1.0  0.00000  0.00000  0.33333  1.0000
  Li  Li3       1.0  0.08333  0.08333  0.41667  1.0000
  X   X5        1.0  0.04167  0.04167  0.37500  1.0000
  X   X6        1.0  0.12500  0.12500  0.45833  1.0000
  O   O4        1.0  0.00000  0.00000  0.50000  1.0000
  Li  Li4       1.0  0.08333  0.08333  0.58333  1.0000
  X   X7        1.0  0.04167  0.04167  0.54167  1.0000
  X   X8        1.0  0.12500  0.12500  0.62500  1.0000
  O   O5        1.0  0.00000  0.00000  0.66667  1.0000
  Mn  Mn1       1.0  0.08333  0.08333  0.75000  1.0000
  X   X9        1.0  0.04167  0.04167  0.70833  1.0000
  X   X10       1.0  0.12500  0.12500  0.79167  1.0000
  O   O6        1.0  0.00000  0.00000  0.83333  1.0000
  Li  Li5       1.0  0.08333  0.08333  0.91667  1.0000
  X   X11       1.0  0.04167  0.04167  0.87500  1.0000
  X   X12       1.0  0.12500  0.12500  0.95833  1.0000
  O   O7        1.0  0.00000  0.16667  0.00000  1.0000
  Mn  Mn2       1.0  0.08333  0.25000  0.08333  1.0000
  X   X13       1.0  0.04167  0.20833  0.04167  1.0000
  X   X14       1.0  0.12500  0.29167  0.12500  1.0000
  O   O8        1.0  0.00000  0.16667  0.16667  1.0000
  Li  Li6       1.0  0.08333  0.25000  0.25000  1.0000
  X   X15       1.0  0.04167  0.20833  0.20833  1.0000
  X   X16       1.0  0.12500  0.29167  0.29167  1.0000
  O   O9        1.0  0.00000  0.16667  0.33333  1.0000
  Li  Li7       1.0  0.08333  0.25000  0.41667  1.0000
  X   X17       1.0  0.04167  0.20833  0.37500  1.0000
  X   X18       1.0  0.12500  0.29167  0.45833  1.0000
  O   O10       1.0  0.00000  0.16667  0.50000  1.0000
  Mn  Mn3       1.0  0.08333  0.25000  0.58333  1.0000
  X   X19       1.0  0.04167  0.20833  0.54167  1.0000
  X   X20       1.0  0.12500  0.29167  0.62500  1.0000
  O   O11       1.0  0.00000  0.16667  0.66667  1.0000
  Li  Li8       1.0  0.08333  0.25000  0.75000  1.0000
  X   X21       1.0  0.04167  0.20833  0.70833  1.0000
  X   X22       1.0  0.12500  0.29167  0.79167  1.0000
  O   O12       1.0  0.00000  0.16667  0.83333  1.0000
  Li  Li9       1.0  0.08333  0.25000  0.91667  1.0000
  X   X23       1.0  0.04167  0.20833  0.87500  1.0000
  X   X24       1.0  0.12500  0.29167  0.95833  1.0000
  O   O13       1.0  0.00000  0.33333  0.00000  1.0000
  Li  Li10      1.0  0.08333  0.41667  0.08333  1.0000
  X   X25       1.0  0.04167  0.37500  0.04167  1.0000
  X   X26       1.0  0.12500  0.45833  0.12500  1.0000
  O   O14       1.0  0.00000  0.33333  0.16667  1.0000
  Mn  Mn4       1.0  0.08333  0.41667  0.25000  1.0000
  X   X27       1.0  0.04167  0.37500  0.20833  1.0000
  X   X28       1.0  0.12500  0.45833  0.29167  1.0000
  O   O15       1.0  0.00000  0.33333  0.33333  1.0000
  Li  Li11      1.0  0.08333  0.41667  0.41667  1.0000
  X   X29       1.0  0.04167  0.37500  0.37500  1.0000
  X   X30       1.0  0.12500  0.45833  0.45833  1.0000
  O   O16       1.0  0.00000  0.33333  0.50000  1.0000
  Li  Li12      1.0  0.08333  0.41667  0.58333  1.0000
  X   X31       1.0  0.04167  0.37500  0.54167  1.0000
  X   X32       1.0  0.12500  0.45833  0.62500  1.0000
  O   O17       1.0  0.00000  0.33333  0.66667  1.0000
  Mn  Mn5       1.0  0.08333  0.41667  0.75000  1.0000
  X   X33       1.0  0.04167  0.37500  0.70833  1.0000
  X   X34       1.0  0.12500  0.45833  0.79167  1.0000
  O   O18       1.0  0.00000  0.33333  0.83333  1.0000
  Li  Li13      1.0  0.08333  0.41667  0.91667  1.0000
  X   X35       1.0  0.04167  0.37500  0.87500  1.0000
  X   X36       1.0  0.12500  0.45833  0.95833  1.0000
  O   O19       1.0  0.00000  0.50000  0.00000  1.0000
  Li  Li14      1.0  0.08333  0.58333  0.08333  1.0000
  X   X37       1.0  0.04167  0.54167  0.04167  1.0000
  X   X38       1.0  0.12500  0.62500  0.12500  1.0000
  O   O20       1.0  0.00000  0.50000  0.16667  1.0000
  Li  Li15      1.0  0.08333  0.58333  0.25000  1.0000
  X   X39       1.0  0.04167  0.54167  0.20833  1.0000
  X   X40       1.0  0.12500  0.62500  0.29167  1.0000
  O   O21       1.0  0.00000  0.50000  0.33333  1.0000
  Mn  Mn6       1.0  0.08333  0.58333  0.41667  1.0000
  X   X41       1.0  0.04167  0.54167  0.37500  1.0000
  X   X42       1.0  0.12500  0.62500  0.45833  1.0000
  O   O22       1.0  0.00000  0.50000  0.50000  1.0000
  Mn  Mn7       1.0  0.08333  0.58333  0.58333  1.0000
  X   X43       1.0  0.04167  0.54167  0.54167  1.0000
  X   X44       1.0  0.12500  0.62500  0.62500  1.0000
  O   O23       1.0  0.00000  0.50000  0.66667  1.0000
  Li  Li16      1.0  0.08333  0.58333  0.75000  1.0000
  X   X45       1.0  0.04167  0.54167  0.70833  1.0000
  X   X46       1.0  0.12500  0.62500  0.79167  1.0000
  O   O24       1.0  0.00000  0.50000  0.83333  1.0000
  Mn  Mn8       1.0  0.08333  0.58333  0.91667  1.0000
  X   X47       1.0  0.04167  0.54167  0.87500  1.0000
  X   X48       1.0  0.12500  0.62500  0.95833  1.0000
  O   O25       1.0  0.00000  0.66667  0.00000  1.0000
  Mn  Mn9       1.0  0.08333  0.75000  0.08333  1.0000
  X   X49       1.0  0.04167  0.70833  0.04167  1.0000
  X   X50       1.0  0.12500  0.79167  0.12500  1.0000
  O   O26       1.0  0.00000  0.66667  0.16667  1.0000
  Mn  Mn10      1.0  0.08333  0.75000  0.25000  1.0000
  X   X51       1.0  0.04167  0.70833  0.20833  1.0000
  X   X52       1.0  0.12500  0.79167  0.29167  1.0000
  O   O27       1.0  0.00000  0.66667  0.33333  1.0000
  Li  Li17      1.0  0.08333  0.75000  0.41667  1.0000
  X   X53       1.0  0.04167  0.70833  0.37500  1.0000
  X   X54       1.0  0.12500  0.79167  0.45833  1.0000
  O   O28       1.0  0.00000  0.66667  0.50000  1.0000
  Mn  Mn11      1.0  0.08333  0.75000  0.58333  1.0000
  X   X55       1.0  0.04167  0.70833  0.54167  1.0000
  X   X56       1.0  0.12500  0.79167  0.62500  1.0000
  O   O29       1.0  0.00000  0.66667  0.66667  1.0000
  Li  Li18      1.0  0.08333  0.75000  0.75000  1.0000
  X   X57       1.0  0.04167  0.70833  0.70833  1.0000
  X   X58       1.0  0.12500  0.79167  0.79167  1.0000
  O   O30       1.0  0.00000  0.66667  0.83333  1.0000
  Li  Li19      1.0  0.08333  0.75000  0.91667  1.0000
  X   X59       1.0  0.04167  0.70833  0.87500  1.0000
  X   X60       1.0  0.12500  0.79167  0.95833  1.0000
  O   O31       1.0  0.00000  0.83333  0.00000  1.0000
  Li  Li20      1.0  0.08333  0.91667  0.08333  1.0000
  X   X61       1.0  0.04167  0.87500  0.04167  1.0000
  X   X62       1.0  0.12500  0.95833  0.12500  1.0000
  O   O32       1.0  0.00000  0.83333  0.16667  1.0000
  Mn  Mn12      1.0  0.08333  0.91667  0.25000  1.0000
  X   X63       1.0  0.04167  0.87500  0.20833  1.0000
  X   X64       1.0  0.12500  0.95833  0.29167  1.0000
  O   O33       1.0  0.00000  0.83333  0.33333  1.0000
  Mn  Mn13      1.0  0.08333  0.91667  0.41667  1.0000
  X   X65       1.0  0.04167  0.87500  0.37500  1.0000
  X   X66       1.0  0.12500  0.95833  0.45833  1.0000
  O   O34       1.0  0.00000  0.83333  0.50000  1.0000
  Li  Li21      1.0  0.08333  0.91667  0.58333  1.0000
  X   X67       1.0  0.04167  0.87500  0.54167  1.0000
  X   X68       1.0  0.12500  0.95833  0.62500  1.0000
  O   O35       1.0  0.00000  0.83333  0.66667  1.0000
  Li  Li22      1.0  0.08333  0.91667  0.75000  1.0000
  X   X69       1.0  0.04167  0.87500  0.70833  1.0000
  X   X70       1.0  0.12500  0.95833  0.79167  1.0000
  O   O36       1.0  0.00000  0.83333  0.83333  1.0000
  Li  Li23      1.0  0.08333  0.91667  0.91667  1.0000
  X   X71       1.0  0.04167  0.87500  0.87500  1.0000
  X   X72       1.0  0.12500  0.95833  0.95833  1.0000
  O   O37       1.0  0.16667  0.00000  0.00000  1.0000
  Li  Li24      1.0  0.25000  0.08333  0.08333  1.0000
  X   X73       1.0  0.20833  0.04167  0.04167  1.0000
  X   X74       1.0  0.29167  0.12500  0.12500  1.0000
  O   O38       1.0  0.16667  0.00000  0.16667  1.0000
  Mn  Mn14      1.0  0.25000  0.08333  0.25000  1.0000
  X   X75       1.0  0.20833  0.04167  0.20833  1.0000
  X   X76       1.0  0.29167  0.12500  0.29167  1.0000
  O   O39       1.0  0.16667  0.00000  0.33333  1.0000
  Li  Li25      1.0  0.25000  0.08333  0.41667  1.0000
  X   X77       1.0  0.20833  0.04167  0.37500  1.0000
  X   X78       1.0  0.29167  0.12500  0.45833  1.0000
  O   O40       1.0  0.16667  0.00000  0.50000  1.0000
  Mn  Mn15      1.0  0.25000  0.08333  0.58333  1.0000
  X   X79       1.0  0.20833  0.04167  0.54167  1.0000
  X   X80       1.0  0.29167  0.12500  0.62500  1.0000
  O   O41       1.0  0.16667  1.00000  0.66667  1.0000
  Mn  Mn16      1.0  0.25000  0.08333  0.75000  1.0000
  X   X81       1.0  0.20833  0.04167  0.70833  1.0000
  X   X82       1.0  0.29167  0.12500  0.79167  1.0000
  O   O42       1.0  0.16667  0.00000  0.83333  1.0000
  Li  Li26      1.0  0.25000  0.08333  0.91667  1.0000
  X   X83       1.0  0.20833  0.04167  0.87500  1.0000
  X   X84       1.0  0.29167  0.12500  0.95833  1.0000
  O   O43       1.0  0.16667  0.16667  0.00000  1.0000
  Li  Li27      1.0  0.25000  0.25000  0.08333  1.0000
  X   X85       1.0  0.20833  0.20833  0.04167  1.0000
  X   X86       1.0  0.29167  0.29167  0.12500  1.0000
  O   O44       1.0  0.16667  0.16667  0.16667  1.0000
  Li  Li28      1.0  0.25000  0.25000  0.25000  1.0000
  X   X87       1.0  0.20833  0.20833  0.20833  1.0000
  X   X88       1.0  0.29167  0.29167  0.29167  1.0000
  O   O45       1.0  0.16667  0.16667  0.33333  1.0000
  Li  Li29      1.0  0.25000  0.25000  0.41667  1.0000
  X   X89       1.0  0.20833  0.20833  0.37500  1.0000
  X   X90       1.0  0.29167  0.29167  0.45833  1.0000
  O   O46       1.0  0.16667  0.16667  0.50000  1.0000
  Li  Li30      1.0  0.25000  0.25000  0.58333  1.0000
  X   X91       1.0  0.20833  0.20833  0.54167  1.0000
  X   X92       1.0  0.29167  0.29167  0.62500  1.0000
  O   O47       1.0  0.16667  0.16667  0.66667  1.0000
  Li  Li31      1.0  0.25000  0.25000  0.75000  1.0000
  X   X93       1.0  0.20833  0.20833  0.70833  1.0000
  X   X94       1.0  0.29167  0.29167  0.79167  1.0000
  O   O48       1.0  0.16667  0.16667  0.83333  1.0000
  Li  Li32      1.0  0.25000  0.25000  0.91667  1.0000
  X   X95       1.0  0.20833  0.20833  0.87500  1.0000
  X   X96       1.0  0.29167  0.29167  0.95833  1.0000
  O   O49       1.0  0.16667  0.33333  0.00000  1.0000
  Li  Li33      1.0  0.25000  0.41667  0.08333  1.0000
  X   X97       1.0  0.20833  0.37500  0.04167  1.0000
  X   X98       1.0  0.29167  0.45833  0.12500  1.0000
  O   O50       1.0  0.16667  0.33333  0.16667  1.0000
  Li  Li34      1.0  0.25000  0.41667  0.25000  1.0000
  X   X99       1.0  0.20833  0.37500  0.20833  1.0000
  X   X100      1.0  0.29167  0.45833  0.29167  1.0000
  O   O51       1.0  0.16667  0.33333  0.33333  1.0000
  Li  Li35      1.0  0.25000  0.41667  0.41667  1.0000
  X   X101      1.0  0.20833  0.37500  0.37500  1.0000
  X   X102      1.0  0.29167  0.45833  0.45833  1.0000
  O   O52       1.0  0.16667  0.33333  0.50000  1.0000
  Mn  Mn17      1.0  0.25000  0.41667  0.58333  1.0000
  X   X103      1.0  0.20833  0.37500  0.54167  1.0000
  X   X104      1.0  0.29167  0.45833  0.62500  1.0000
  O   O53       1.0  0.16667  0.33333  0.66667  1.0000
  Li  Li36      1.0  0.25000  0.41667  0.75000  1.0000
  X   X105      1.0  0.20833  0.37500  0.70833  1.0000
  X   X106      1.0  0.29167  0.45833  0.79167  1.0000
  O   O54       1.0  0.16667  0.33333  0.83333  1.0000
  Mn  Mn18      1.0  0.25000  0.41667  0.91667  1.0000
  X   X107      1.0  0.20833  0.37500  0.87500  1.0000
  X   X108      1.0  0.29167  0.45833  0.95833  1.0000
  O   O55       1.0  0.16667  0.50000  0.00000  1.0000
  Li  Li37      1.0  0.25000  0.58333  0.08333  1.0000
  X   X109      1.0  0.20833  0.54167  0.04167  1.0000
  X   X110      1.0  0.29167  0.62500  0.12500  1.0000
  O   O56       1.0  0.16667  0.50000  0.16667  1.0000
  Li  Li38      1.0  0.25000  0.58333  0.25000  1.0000
  X   X111      1.0  0.20833  0.54167  0.20833  1.0000
  X   X112      1.0  0.29167  0.62500  0.29167  1.0000
  O   O57       1.0  0.16667  0.50000  0.33333  1.0000
  Li  Li39      1.0  0.25000  0.58333  0.41667  1.0000
  X   X113      1.0  0.20833  0.54167  0.37500  1.0000
  X   X114      1.0  0.29167  0.62500  0.45833  1.0000
  O   O58       1.0  0.16667  0.50000  0.50000  1.0000
  Li  Li40      1.0  0.25000  0.58333  0.58333  1.0000
  X   X115      1.0  0.20833  0.54167  0.54167  1.0000
  X   X116      1.0  0.29167  0.62500  0.62500  1.0000
  O   O59       1.0  0.16667  0.50000  0.66667  1.0000
  Li  Li41      1.0  0.25000  0.58333  0.75000  1.0000
  X   X117      1.0  0.20833  0.54167  0.70833  1.0000
  X   X118      1.0  0.29167  0.62500  0.79167  1.0000
  O   O60       1.0  0.16667  0.50000  0.83333  1.0000
  Li  Li42      1.0  0.25000  0.58333  0.91667  1.0000
  X   X119      1.0  0.20833  0.54167  0.87500  1.0000
  X   X120      1.0  0.29167  0.62500  0.95833  1.0000
  O   O61       1.0  0.16667  0.66667  0.00000  1.0000
  Li  Li43      1.0  0.25000  0.75000  0.08333  1.0000
  X   X121      1.0  0.20833  0.70833  0.04167  1.0000
  X   X122      1.0  0.29167  0.79167  0.12500  1.0000
  O   O62       1.0  0.16667  0.66667  0.16667  1.0000
  Mn  Mn19      1.0  0.25000  0.75000  0.25000  1.0000
  X   X123      1.0  0.20833  0.70833  0.20833  1.0000
  X   X124      1.0  0.29167  0.79167  0.29167  1.0000
  O   O63       1.0  0.16667  0.66667  0.33333  1.0000
  Li  Li44      1.0  0.25000  0.75000  0.41667  1.0000
  X   X125      1.0  0.20833  0.70833  0.37500  1.0000
  X   X126      1.0  0.29167  0.79167  0.45833  1.0000
  O   O64       1.0  0.16667  0.66667  0.50000  1.0000
  Li  Li45      1.0  0.25000  0.75000  0.58333  1.0000
  X   X127      1.0  0.20833  0.70833  0.54167  1.0000
  X   X128      1.0  0.29167  0.79167  0.62500  1.0000
  O   O65       1.0  0.16667  0.66667  0.66667  1.0000
  Li  Li46      1.0  0.25000  0.75000  0.75000  1.0000
  X   X129      1.0  0.20833  0.70833  0.70833  1.0000
  X   X130      1.0  0.29167  0.79167  0.79167  1.0000
  O   O66       1.0  0.16667  0.66667  0.83333  1.0000
  Li  Li47      1.0  0.25000  0.75000  0.91667  1.0000
  X   X131      1.0  0.20833  0.70833  0.87500  1.0000
  X   X132      1.0  0.29167  0.79167  0.95833  1.0000
  O   O67       1.0  0.16667  0.83333  0.00000  1.0000
  Li  Li48      1.0  0.25000  0.91667  0.08333  1.0000
  X   X133      1.0  0.20833  0.87500  0.04167  1.0000
  X   X134      1.0  0.29167  0.95833  0.12500  1.0000
  O   O68       1.0  0.16667  0.83333  0.16667  1.0000
  Mn  Mn20      1.0  0.25000  0.91667  0.25000  1.0000
  X   X135      1.0  0.20833  0.87500  0.20833  1.0000
  X   X136      1.0  0.29167  0.95833  0.29167  1.0000
  O   O69       1.0  0.16667  0.83333  0.33333  1.0000
  Li  Li49      1.0  0.25000  0.91667  0.41667  1.0000
  X   X137      1.0  0.20833  0.87500  0.37500  1.0000
  X   X138      1.0  0.29167  0.95833  0.45833  1.0000
  O   O70       1.0  0.16667  0.83333  0.50000  1.0000
  Mn  Mn21      1.0  0.25000  0.91667  0.58333  1.0000
  X   X139      1.0  0.20833  0.87500  0.54167  1.0000
  X   X140      1.0  0.29167  0.95833  0.62500  1.0000
  O   O71       1.0  0.16667  0.83333  0.66667  1.0000
  Li  Li50      1.0  0.25000  0.91667  0.75000  1.0000
  X   X141      1.0  0.20833  0.87500  0.70833  1.0000
  X   X142      1.0  0.29167  0.95833  0.79167  1.0000
  O   O72       1.0  0.16667  0.83333  0.83333  1.0000
  Mn  Mn22      1.0  0.25000  0.91667  0.91667  1.0000
  X   X143      1.0  0.20833  0.87500  0.87500  1.0000
  X   X144      1.0  0.29167  0.95833  0.95833  1.0000
  O   O73       1.0  0.33333  0.00000  0.00000  1.0000
  Li  Li51      1.0  0.41667  0.08333  0.08333  1.0000
  X   X145      1.0  0.37500  0.04167  0.04167  1.0000
  X   X146      1.0  0.45833  0.12500  0.12500  1.0000
  O   O74       1.0  0.33333  0.00000  0.16667  1.0000
  Li  Li52      1.0  0.41667  0.08333  0.25000  1.0000
  X   X147      1.0  0.37500  0.04167  0.20833  1.0000
  X   X148      1.0  0.45833  0.12500  0.29167  1.0000
  O   O75       1.0  0.33333  0.00000  0.33333  1.0000
  Li  Li53      1.0  0.41667  0.08333  0.41667  1.0000
  X   X149      1.0  0.37500  0.04167  0.37500  1.0000
  X   X150      1.0  0.45833  0.12500  0.45833  1.0000
  O   O76       1.0  0.33333  0.00000  0.50000  1.0000
  Li  Li54      1.0  0.41667  0.08333  0.58333  1.0000
  X   X151      1.0  0.37500  0.04167  0.54167  1.0000
  X   X152      1.0  0.45833  0.12500  0.62500  1.0000
  O   O77       1.0  0.33333  0.00000  0.66667  1.0000
  Mn  Mn23      1.0  0.41667  0.08333  0.75000  1.0000
  X   X153      1.0  0.37500  0.04167  0.70833  1.0000
  X   X154      1.0  0.45833  0.12500  0.79167  1.0000
  O   O78       1.0  0.33333  0.00000  0.83333  1.0000
  Li  Li55      1.0  0.41667  0.08333  0.91667  1.0000
  X   X155      1.0  0.37500  0.04167  0.87500  1.0000
  X   X156      1.0  0.45833  0.12500  0.95833  1.0000
  O   O79       1.0  0.33333  0.16667  0.00000  1.0000
  Mn  Mn24      1.0  0.41667  0.25000  0.08333  1.0000
  X   X157      1.0  0.37500  0.20833  0.04167  1.0000
  X   X158      1.0  0.45833  0.29167  0.12500  1.0000
  O   O80       1.0  0.33333  0.16667  0.16667  1.0000
  Mn  Mn25      1.0  0.41667  0.25000  0.25000  1.0000
  X   X159      1.0  0.37500  0.20833  0.20833  1.0000
  X   X160      1.0  0.45833  0.29167  0.29167  1.0000
  O   O81       1.0  0.33333  0.16667  0.33333  1.0000
  Li  Li56      1.0  0.41667  0.25000  0.41667  1.0000
  X   X161      1.0  0.37500  0.20833  0.37500  1.0000
  X   X162      1.0  0.45833  0.29167  0.45833  1.0000
  O   O82       1.0  0.33333  0.16667  0.50000  1.0000
  Li  Li57      1.0  0.41667  0.25000  0.58333  1.0000
  X   X163      1.0  0.37500  0.20833  0.54167  1.0000
  X   X164      1.0  0.45833  0.29167  0.62500  1.0000
  O   O83       1.0  0.33333  0.16667  0.66667  1.0000
  Li  Li58      1.0  0.41667  0.25000  0.75000  1.0000
  X   X165      1.0  0.37500  0.20833  0.70833  1.0000
  X   X166      1.0  0.45833  0.29167  0.79167  1.0000
  O   O84       1.0  0.33333  0.16667  0.83333  1.0000
  Li  Li59      1.0  0.41667  0.25000  0.91667  1.0000
  X   X167      1.0  0.37500  0.20833  0.87500  1.0000
  X   X168      1.0  0.45833  0.29167  0.95833  1.0000
  O   O85       1.0  0.33333  0.33333  0.00000  1.0000
  Li  Li60      1.0  0.41667  0.41667  0.08333  1.0000
  X   X169      1.0  0.37500  0.37500  0.04167  1.0000
  X   X170      1.0  0.45833  0.45833  0.12500  1.0000
  O   O86       1.0  0.33333  0.33333  0.16667  1.0000
  Mn  Mn26      1.0  0.41667  0.41667  0.25000  1.0000
  X   X171      1.0  0.37500  0.37500  0.20833  1.0000
  X   X172      1.0  0.45833  0.45833  0.29167  1.0000
  O   O87       1.0  0.33333  0.33333  0.33333  1.0000
  Mn  Mn27      1.0  0.41667  0.41667  0.41667  1.0000
  X   X173      1.0  0.37500  0.37500  0.37500  1.0000
  X   X174      1.0  0.45833  0.45833  0.45833  1.0000
  O   O88       1.0  0.33333  0.33333  0.50000  1.0000
  Mn  Mn28      1.0  0.41667  0.41667  0.58333  1.0000
  X   X175      1.0  0.37500  0.37500  0.54167  1.0000
  X   X176      1.0  0.45833  0.45833  0.62500  1.0000
  O   O89       1.0  0.33333  0.33333  0.66667  1.0000
  Mn  Mn29      1.0  0.41667  0.41667  0.75000  1.0000
  X   X177      1.0  0.37500  0.37500  0.70833  1.0000
  X   X178      1.0  0.45833  0.45833  0.79167  1.0000
  O   O90       1.0  0.33333  0.33333  0.83333  1.0000
  Mn  Mn30      1.0  0.41667  0.41667  0.91667  1.0000
  X   X179      1.0  0.37500  0.37500  0.87500  1.0000
  X   X180      1.0  0.45833  0.45833  0.95833  1.0000
  O   O91       1.0  0.33333  0.50000  0.00000  1.0000
  Li  Li61      1.0  0.41667  0.58333  0.08333  1.0000
  X   X181      1.0  0.37500  0.54167  0.04167  1.0000
  X   X182      1.0  0.45833  0.62500  0.12500  1.0000
  O   O92       1.0  0.33333  0.50000  0.16667  1.0000
  Li  Li62      1.0  0.41667  0.58333  0.25000  1.0000
  X   X183      1.0  0.37500  0.54167  0.20833  1.0000
  X   X184      1.0  0.45833  0.62500  0.29167  1.0000
  O   O93       1.0  0.33333  0.50000  0.33333  1.0000
  Mn  Mn31      1.0  0.41667  0.58333  0.41667  1.0000
  X   X185      1.0  0.37500  0.54167  0.37500  1.0000
  X   X186      1.0  0.45833  0.62500  0.45833  1.0000
  O   O94       1.0  0.33333  0.50000  0.50000  1.0000
  Li  Li63      1.0  0.41667  0.58333  0.58333  1.0000
  X   X187      1.0  0.37500  0.54167  0.54167  1.0000
  X   X188      1.0  0.45833  0.62500  0.62500  1.0000
  O   O95       1.0  0.33333  0.50000  0.66667  1.0000
  Mn  Mn32      1.0  0.41667  0.58333  0.75000  1.0000
  X   X189      1.0  0.37500  0.54167  0.70833  1.0000
  X   X190      1.0  0.45833  0.62500  0.79167  1.0000
  O   O96       1.0  0.33333  0.50000  0.83333  1.0000
  Li  Li64      1.0  0.41667  0.58333  0.91667  1.0000
  X   X191      1.0  0.37500  0.54167  0.87500  1.0000
  X   X192      1.0  0.45833  0.62500  0.95833  1.0000
  O   O97       1.0  0.33333  0.66667  0.00000  1.0000
  Mn  Mn33      1.0  0.41667  0.75000  0.08333  1.0000
  X   X193      1.0  0.37500  0.70833  0.04167  1.0000
  X   X194      1.0  0.45833  0.79167  0.12500  1.0000
  O   O98       1.0  0.33333  0.66667  0.16667  1.0000
  Li  Li65      1.0  0.41667  0.75000  0.25000  1.0000
  X   X195      1.0  0.37500  0.70833  0.20833  1.0000
  X   X196      1.0  0.45833  0.79167  0.29167  1.0000
  O   O99       1.0  0.33333  0.66667  0.33333  1.0000
  Li  Li66      1.0  0.41667  0.75000  0.41667  1.0000
  X   X197      1.0  0.37500  0.70833  0.37500  1.0000
  X   X198      1.0  0.45833  0.79167  0.45833  1.0000
  O   O100      1.0  0.33333  0.66667  0.50000  1.0000
  Mn  Mn34      1.0  0.41667  0.75000  0.58333  1.0000
  X   X199      1.0  0.37500  0.70833  0.54167  1.0000
  X   X200      1.0  0.45833  0.79167  0.62500  1.0000
  O   O101      1.0  0.33333  0.66667  0.66667  1.0000
  Mn  Mn35      1.0  0.41667  0.75000  0.75000  1.0000
  X   X201      1.0  0.37500  0.70833  0.70833  1.0000
  X   X202      1.0  0.45833  0.79167  0.79167  1.0000
  O   O102      1.0  0.33333  0.66667  0.83333  1.0000
  Li  Li67      1.0  0.41667  0.75000  0.91667  1.0000
  X   X203      1.0  0.37500  0.70833  0.87500  1.0000
  X   X204      1.0  0.45833  0.79167  0.95833  1.0000
  O   O103      1.0  0.33333  0.83333  0.00000  1.0000
  Li  Li68      1.0  0.41667  0.91667  0.08333  1.0000
  X   X205      1.0  0.37500  0.87500  0.04167  1.0000
  X   X206      1.0  0.45833  0.95833  0.12500  1.0000
  O   O104      1.0  0.33333  0.83333  0.16667  1.0000
  Mn  Mn36      1.0  0.41667  0.91667  0.25000  1.0000
  X   X207      1.0  0.37500  0.87500  0.20833  1.0000
  X   X208      1.0  0.45833  0.95833  0.29167  1.0000
  O   O105      1.0  0.33333  0.83333  0.33333  1.0000
  Li  Li69      1.0  0.41667  0.91667  0.41667  1.0000
  X   X209      1.0  0.37500  0.87500  0.37500  1.0000
  X   X210      1.0  0.45833  0.95833  0.45833  1.0000
  O   O106      1.0  0.33333  0.83333  0.50000  1.0000
  Li  Li70      1.0  0.41667  0.91667  0.58333  1.0000
  X   X211      1.0  0.37500  0.87500  0.54167  1.0000
  X   X212      1.0  0.45833  0.95833  0.62500  1.0000
  O   O107      1.0  0.33333  0.83333  0.66667  1.0000
  Mn  Mn37      1.0  0.41667  0.91667  0.75000  1.0000
  X   X213      1.0  0.37500  0.87500  0.70833  1.0000
  X   X214      1.0  0.45833  0.95833  0.79167  1.0000
  O   O108      1.0  0.33333  0.83333  0.83333  1.0000
  Mn  Mn38      1.0  0.41667  0.91667  0.91667  1.0000
  X   X215      1.0  0.37500  0.87500  0.87500  1.0000
  X   X216      1.0  0.45833  0.95833  0.95833  1.0000
  O   O109      1.0  0.50000  1.00000  1.00000  1.0000
  Li  Li71      1.0  0.58333  0.08333  0.08333  1.0000
  X   X217      1.0  0.54167  0.04167  0.04167  1.0000
  X   X218      1.0  0.62500  0.12500  0.12500  1.0000
  O   O110      1.0  0.50000  1.00000  0.16667  1.0000
  Mn  Mn39      1.0  0.58333  0.08333  0.25000  1.0000
  X   X219      1.0  0.54167  0.04167  0.20833  1.0000
  X   X220      1.0  0.62500  0.12500  0.29167  1.0000
  O   O111      1.0  0.50000  0.00000  0.33333  1.0000
  Mn  Mn40      1.0  0.58333  0.08333  0.41667  1.0000
  X   X221      1.0  0.54167  0.04167  0.37500  1.0000
  X   X222      1.0  0.62500  0.12500  0.45833  1.0000
  O   O112      1.0  0.50000  0.00000  0.50000  1.0000
  Li  Li72      1.0  0.58333  0.08333  0.58333  1.0000
  X   X223      1.0  0.54167  0.04167  0.54167  1.0000
  X   X224      1.0  0.62500  0.12500  0.62500  1.0000
  O   O113      1.0  0.50000  0.00000  0.66667  1.0000
  Li  Li73      1.0  0.58333  0.08333  0.75000  1.0000
  X   X225      1.0  0.54167  0.04167  0.70833  1.0000
  X   X226      1.0  0.62500  0.12500  0.79167  1.0000
  O   O114      1.0  0.50000  1.00000  0.83333  1.0000
  Mn  Mn41      1.0  0.58333  0.08333  0.91667  1.0000
  X   X227      1.0  0.54167  0.04167  0.87500  1.0000
  X   X228      1.0  0.62500  0.12500  0.95833  1.0000
  O   O115      1.0  0.50000  0.16667  1.00000  1.0000
  Li  Li74      1.0  0.58333  0.25000  0.08333  1.0000
  X   X229      1.0  0.54167  0.20833  0.04167  1.0000
  X   X230      1.0  0.62500  0.29167  0.12500  1.0000
  O   O116      1.0  0.50000  0.16667  0.16667  1.0000
  Li  Li75      1.0  0.58333  0.25000  0.25000  1.0000
  X   X231      1.0  0.54167  0.20833  0.20833  1.0000
  X   X232      1.0  0.62500  0.29167  0.29167  1.0000
  O   O117      1.0  0.50000  0.16667  0.33333  1.0000
  Li  Li76      1.0  0.58333  0.25000  0.41667  1.0000
  X   X233      1.0  0.54167  0.20833  0.37500  1.0000
  X   X234      1.0  0.62500  0.29167  0.45833  1.0000
  O   O118      1.0  0.50000  0.16667  0.50000  1.0000
  Mn  Mn42      1.0  0.58333  0.25000  0.58333  1.0000
  X   X235      1.0  0.54167  0.20833  0.54167  1.0000
  X   X236      1.0  0.62500  0.29167  0.62500  1.0000
  O   O119      1.0  0.50000  0.16667  0.66667  1.0000
  Li  Li77      1.0  0.58333  0.25000  0.75000  1.0000
  X   X237      1.0  0.54167  0.20833  0.70833  1.0000
  X   X238      1.0  0.62500  0.29167  0.79167  1.0000
  O   O120      1.0  0.50000  0.16667  0.83333  1.0000
  Li  Li78      1.0  0.58333  0.25000  0.91667  1.0000
  X   X239      1.0  0.54167  0.20833  0.87500  1.0000
  X   X240      1.0  0.62500  0.29167  0.95833  1.0000
  O   O121      1.0  0.50000  0.33333  1.00000  1.0000
  Li  Li79      1.0  0.58333  0.41667  0.08333  1.0000
  X   X241      1.0  0.54167  0.37500  0.04167  1.0000
  X   X242      1.0  0.62500  0.45833  0.12500  1.0000
  O   O122      1.0  0.50000  0.33333  0.16667  1.0000
  Li  Li80      1.0  0.58333  0.41667  0.25000  1.0000
  X   X243      1.0  0.54167  0.37500  0.20833  1.0000
  X   X244      1.0  0.62500  0.45833  0.29167  1.0000
  O   O123      1.0  0.50000  0.33333  0.33333  1.0000
  Li  Li81      1.0  0.58333  0.41667  0.41667  1.0000
  X   X245      1.0  0.54167  0.37500  0.37500  1.0000
  X   X246      1.0  0.62500  0.45833  0.45833  1.0000
  O   O124      1.0  0.50000  0.33333  0.50000  1.0000
  Li  Li82      1.0  0.58333  0.41667  0.58333  1.0000
  X   X247      1.0  0.54167  0.37500  0.54167  1.0000
  X   X248      1.0  0.62500  0.45833  0.62500  1.0000
  O   O125      1.0  0.50000  0.33333  0.66667  1.0000
  Li  Li83      1.0  0.58333  0.41667  0.75000  1.0000
  X   X249      1.0  0.54167  0.37500  0.70833  1.0000
  X   X250      1.0  0.62500  0.45833  0.79167  1.0000
  O   O126      1.0  0.50000  0.33333  0.83333  1.0000
  Li  Li84      1.0  0.58333  0.41667  0.91667  1.0000
  X   X251      1.0  0.54167  0.37500  0.87500  1.0000
  X   X252      1.0  0.62500  0.45833  0.95833  1.0000
  O   O127      1.0  0.50000  0.50000  1.00000  1.0000
  Mn  Mn43      1.0  0.58333  0.58333  0.08333  1.0000
  X   X253      1.0  0.54167  0.54167  0.04167  1.0000
  X   X254      1.0  0.62500  0.62500  0.12500  1.0000
  O   O128      1.0  0.50000  0.50000  0.16667  1.0000
  Mn  Mn44      1.0  0.58333  0.58333  0.25000  1.0000
  X   X255      1.0  0.54167  0.54167  0.20833  1.0000
  X   X256      1.0  0.62500  0.62500  0.29167  1.0000
  O   O129      1.0  0.50000  0.50000  0.33333  1.0000
  Li  Li85      1.0  0.58333  0.58333  0.41667  1.0000
  X   X257      1.0  0.54167  0.54167  0.37500  1.0000
  X   X258      1.0  0.62500  0.62500  0.45833  1.0000
  O   O130      1.0  0.50000  0.50000  0.50000  1.0000
  Mn  Mn45      1.0  0.58333  0.58333  0.58333  1.0000
  X   X259      1.0  0.54167  0.54167  0.54167  1.0000
  X   X260      1.0  0.62500  0.62500  0.62500  1.0000
  O   O131      1.0  0.50000  0.50000  0.66667  1.0000
  Li  Li86      1.0  0.58333  0.58333  0.75000  1.0000
  X   X261      1.0  0.54167  0.54167  0.70833  1.0000
  X   X262      1.0  0.62500  0.62500  0.79167  1.0000
  O   O132      1.0  0.50000  0.50000  0.83333  1.0000
  Mn  Mn46      1.0  0.58333  0.58333  0.91667  1.0000
  X   X263      1.0  0.54167  0.54167  0.87500  1.0000
  X   X264      1.0  0.62500  0.62500  0.95833  1.0000
  O   O133      1.0  0.50000  0.66667  1.00000  1.0000
  Li  Li87      1.0  0.58333  0.75000  0.08333  1.0000
  X   X265      1.0  0.54167  0.70833  0.04167  1.0000
  X   X266      1.0  0.62500  0.79167  0.12500  1.0000
  O   O134      1.0  0.50000  0.66667  0.16667  1.0000
  Li  Li88      1.0  0.58333  0.75000  0.25000  1.0000
  X   X267      1.0  0.54167  0.70833  0.20833  1.0000
  X   X268      1.0  0.62500  0.79167  0.29167  1.0000
  O   O135      1.0  0.50000  0.66667  0.33333  1.0000
  Mn  Mn47      1.0  0.58333  0.75000  0.41667  1.0000
  X   X269      1.0  0.54167  0.70833  0.37500  1.0000
  X   X270      1.0  0.62500  0.79167  0.45833  1.0000
  O   O136      1.0  0.50000  0.66667  0.50000  1.0000
  Li  Li89      1.0  0.58333  0.75000  0.58333  1.0000
  X   X271      1.0  0.54167  0.70833  0.54167  1.0000
  X   X272      1.0  0.62500  0.79167  0.62500  1.0000
  O   O137      1.0  0.50000  0.66667  0.66667  1.0000
  Li  Li90      1.0  0.58333  0.75000  0.75000  1.0000
  X   X273      1.0  0.54167  0.70833  0.70833  1.0000
  X   X274      1.0  0.62500  0.79167  0.79167  1.0000
  O   O138      1.0  0.50000  0.66667  0.83333  1.0000
  Li  Li91      1.0  0.58333  0.75000  0.91667  1.0000
  X   X275      1.0  0.54167  0.70833  0.87500  1.0000
  X   X276      1.0  0.62500  0.79167  0.95833  1.0000
  O   O139      1.0  0.50000  0.83333  1.00000  1.0000
  Mn  Mn48      1.0  0.58333  0.91667  0.08333  1.0000
  X   X277      1.0  0.54167  0.87500  0.04167  1.0000
  X   X278      1.0  0.62500  0.95833  0.12500  1.0000
  O   O140      1.0  0.50000  0.83333  0.16667  1.0000
  Li  Li92      1.0  0.58333  0.91667  0.25000  1.0000
  X   X279      1.0  0.54167  0.87500  0.20833  1.0000
  X   X280      1.0  0.62500  0.95833  0.29167  1.0000
  O   O141      1.0  0.50000  0.83333  0.33333  1.0000
  Li  Li93      1.0  0.58333  0.91667  0.41667  1.0000
  X   X281      1.0  0.54167  0.87500  0.37500  1.0000
  X   X282      1.0  0.62500  0.95833  0.45833  1.0000
  O   O142      1.0  0.50000  0.83333  0.50000  1.0000
  Mn  Mn49      1.0  0.58333  0.91667  0.58333  1.0000
  X   X283      1.0  0.54167  0.87500  0.54167  1.0000
  X   X284      1.0  0.62500  0.95833  0.62500  1.0000
  O   O143      1.0  0.50000  0.83333  0.66667  1.0000
  Mn  Mn50      1.0  0.58333  0.91667  0.75000  1.0000
  X   X285      1.0  0.54167  0.87500  0.70833  1.0000
  X   X286      1.0  0.62500  0.95833  0.79167  1.0000
  O   O144      1.0  0.50000  0.83333  0.83333  1.0000
  Li  Li94      1.0  0.58333  0.91667  0.91667  1.0000
  X   X287      1.0  0.54167  0.87500  0.87500  1.0000
  X   X288      1.0  0.62500  0.95833  0.95833  1.0000
  O   O145      1.0  0.66667  1.00000  1.00000  1.0000
  Li  Li95      1.0  0.75000  0.08333  0.08333  1.0000
  X   X289      1.0  0.70833  0.04167  0.04167  1.0000
  X   X290      1.0  0.79167  0.12500  0.12500  1.0000
  O   O146      1.0  0.66667  1.00000  0.16667  1.0000
  Li  Li96      1.0  0.75000  0.08333  0.25000  1.0000
  X   X291      1.0  0.70833  0.04167  0.20833  1.0000
  X   X292      1.0  0.79167  0.12500  0.29167  1.0000
  O   O147      1.0  0.66667  0.00000  0.33333  1.0000
  Mn  Mn51      1.0  0.75000  0.08333  0.41667  1.0000
  X   X293      1.0  0.70833  0.04167  0.37500  1.0000
  X   X294      1.0  0.79167  0.12500  0.45833  1.0000
  O   O148      1.0  0.66667  0.00000  0.50000  1.0000
  Mn  Mn52      1.0  0.75000  0.08333  0.58333  1.0000
  X   X295      1.0  0.70833  0.04167  0.54167  1.0000
  X   X296      1.0  0.79167  0.12500  0.62500  1.0000
  O   O149      1.0  0.66667  1.00000  0.66667  1.0000
  Li  Li97      1.0  0.75000  0.08333  0.75000  1.0000
  X   X297      1.0  0.70833  0.04167  0.70833  1.0000
  X   X298      1.0  0.79167  0.12500  0.79167  1.0000
  O   O150      1.0  0.66667  0.00000  0.83333  1.0000
  Li  Li98      1.0  0.75000  0.08333  0.91667  1.0000
  X   X299      1.0  0.70833  0.04167  0.87500  1.0000
  X   X300      1.0  0.79167  0.12500  0.95833  1.0000
  O   O151      1.0  0.66667  0.16667  1.00000  1.0000
  Mn  Mn53      1.0  0.75000  0.25000  0.08333  1.0000
  X   X301      1.0  0.70833  0.20833  0.04167  1.0000
  X   X302      1.0  0.79167  0.29167  0.12500  1.0000
  O   O152      1.0  0.66667  0.16667  0.16667  1.0000
  Li  Li99      1.0  0.75000  0.25000  0.25000  1.0000
  X   X303      1.0  0.70833  0.20833  0.20833  1.0000
  X   X304      1.0  0.79167  0.29167  0.29167  1.0000
  O   O153      1.0  0.66667  0.16667  0.33333  1.0000
  Li  Li100     1.0  0.75000  0.25000  0.41667  1.0000
  X   X305      1.0  0.70833  0.20833  0.37500  1.0000
  X   X306      1.0  0.79167  0.29167  0.45833  1.0000
  O   O154      1.0  0.66667  0.16667  0.50000  1.0000
  Mn  Mn54      1.0  0.75000  0.25000  0.58333  1.0000
  X   X307      1.0  0.70833  0.20833  0.54167  1.0000
  X   X308      1.0  0.79167  0.29167  0.62500  1.0000
  O   O155      1.0  0.66667  0.16667  0.66667  1.0000
  Li  Li101     1.0  0.75000  0.25000  0.75000  1.0000
  X   X309      1.0  0.70833  0.20833  0.70833  1.0000
  X   X310      1.0  0.79167  0.29167  0.79167  1.0000
  O   O156      1.0  0.66667  0.16667  0.83333  1.0000
  Li  Li102     1.0  0.75000  0.25000  0.91667  1.0000
  X   X311      1.0  0.70833  0.20833  0.87500  1.0000
  X   X312      1.0  0.79167  0.29167  0.95833  1.0000
  O   O157      1.0  0.66667  0.33333  1.00000  1.0000
  Li  Li103     1.0  0.75000  0.41667  0.08333  1.0000
  X   X313      1.0  0.70833  0.37500  0.04167  1.0000
  X   X314      1.0  0.79167  0.45833  0.12500  1.0000
  O   O158      1.0  0.66667  0.33333  0.16667  1.0000
  Li  Li104     1.0  0.75000  0.41667  0.25000  1.0000
  X   X315      1.0  0.70833  0.37500  0.20833  1.0000
  X   X316      1.0  0.79167  0.45833  0.29167  1.0000
  O   O159      1.0  0.66667  0.33333  0.33333  1.0000
  Li  Li105     1.0  0.75000  0.41667  0.41667  1.0000
  X   X317      1.0  0.70833  0.37500  0.37500  1.0000
  X   X318      1.0  0.79167  0.45833  0.45833  1.0000
  O   O160      1.0  0.66667  0.33333  0.50000  1.0000
  Li  Li106     1.0  0.75000  0.41667  0.58333  1.0000
  X   X319      1.0  0.70833  0.37500  0.54167  1.0000
  X   X320      1.0  0.79167  0.45833  0.62500  1.0000
  O   O161      1.0  0.66667  0.33333  0.66667  1.0000
  Mn  Mn55      1.0  0.75000  0.41667  0.75000  1.0000
  X   X321      1.0  0.70833  0.37500  0.70833  1.0000
  X   X322      1.0  0.79167  0.45833  0.79167  1.0000
  O   O162      1.0  0.66667  0.33333  0.83333  1.0000
  Li  Li107     1.0  0.75000  0.41667  0.91667  1.0000
  X   X323      1.0  0.70833  0.37500  0.87500  1.0000
  X   X324      1.0  0.79167  0.45833  0.95833  1.0000
  O   O163      1.0  0.66667  0.50000  1.00000  1.0000
  Li  Li108     1.0  0.75000  0.58333  0.08333  1.0000
  X   X325      1.0  0.70833  0.54167  0.04167  1.0000
  X   X326      1.0  0.79167  0.62500  0.12500  1.0000
  O   O164      1.0  0.66667  0.50000  0.16667  1.0000
  Mn  Mn56      1.0  0.75000  0.58333  0.25000  1.0000
  X   X327      1.0  0.70833  0.54167  0.20833  1.0000
  X   X328      1.0  0.79167  0.62500  0.29167  1.0000
  O   O165      1.0  0.66667  0.50000  0.33333  1.0000
  Li  Li109     1.0  0.75000  0.58333  0.41667  1.0000
  X   X329      1.0  0.70833  0.54167  0.37500  1.0000
  X   X330      1.0  0.79167  0.62500  0.45833  1.0000
  O   O166      1.0  0.66667  0.50000  0.50000  1.0000
  Li  Li110     1.0  0.75000  0.58333  0.58333  1.0000
  X   X331      1.0  0.70833  0.54167  0.54167  1.0000
  X   X332      1.0  0.79167  0.62500  0.62500  1.0000
  O   O167      1.0  0.66667  0.50000  0.66667  1.0000
  Li  Li111     1.0  0.75000  0.58333  0.75000  1.0000
  X   X333      1.0  0.70833  0.54167  0.70833  1.0000
  X   X334      1.0  0.79167  0.62500  0.79167  1.0000
  O   O168      1.0  0.66667  0.50000  0.83333  1.0000
  Li  Li112     1.0  0.75000  0.58333  0.91667  1.0000
  X   X335      1.0  0.70833  0.54167  0.87500  1.0000
  X   X336      1.0  0.79167  0.62500  0.95833  1.0000
  O   O169      1.0  0.66667  0.66667  1.00000  1.0000
  Mn  Mn57      1.0  0.75000  0.75000  0.08333  1.0000
  X   X337      1.0  0.70833  0.70833  0.04167  1.0000
  X   X338      1.0  0.79167  0.79167  0.12500  1.0000
  O   O170      1.0  0.66667  0.66667  0.16667  1.0000
  Mn  Mn58      1.0  0.75000  0.75000  0.25000  1.0000
  X   X339      1.0  0.70833  0.70833  0.20833  1.0000
  X   X340      1.0  0.79167  0.79167  0.29167  1.0000
  O   O171      1.0  0.66667  0.66667  0.33333  1.0000
  Mn  Mn59      1.0  0.75000  0.75000  0.41667  1.0000
  X   X341      1.0  0.70833  0.70833  0.37500  1.0000
  X   X342      1.0  0.79167  0.79167  0.45833  1.0000
  O   O172      1.0  0.66667  0.66667  0.50000  1.0000
  Mn  Mn60      1.0  0.75000  0.75000  0.58333  1.0000
  X   X343      1.0  0.70833  0.70833  0.54167  1.0000
  X   X344      1.0  0.79167  0.79167  0.62500  1.0000
  O   O173      1.0  0.66667  0.66667  0.66667  1.0000
  Mn  Mn61      1.0  0.75000  0.75000  0.75000  1.0000
  X   X345      1.0  0.70833  0.70833  0.70833  1.0000
  X   X346      1.0  0.79167  0.79167  0.79167  1.0000
  O   O174      1.0  0.66667  0.66667  0.83333  1.0000
  Li  Li113     1.0  0.75000  0.75000  0.91667  1.0000
  X   X347      1.0  0.70833  0.70833  0.87500  1.0000
  X   X348      1.0  0.79167  0.79167  0.95833  1.0000
  O   O175      1.0  0.66667  0.83333  1.00000  1.0000
  Mn  Mn62      1.0  0.75000  0.91667  0.08333  1.0000
  X   X349      1.0  0.70833  0.87500  0.04167  1.0000
  X   X350      1.0  0.79167  0.95833  0.12500  1.0000
  O   O176      1.0  0.66667  0.83333  0.16667  1.0000
  Mn  Mn63      1.0  0.75000  0.91667  0.25000  1.0000
  X   X351      1.0  0.70833  0.87500  0.20833  1.0000
  X   X352      1.0  0.79167  0.95833  0.29167  1.0000
  O   O177      1.0  0.66667  0.83333  0.33333  1.0000
  Li  Li114     1.0  0.75000  0.91667  0.41667  1.0000
  X   X353      1.0  0.70833  0.87500  0.37500  1.0000
  X   X354      1.0  0.79167  0.95833  0.45833  1.0000
  O   O178      1.0  0.66667  0.83333  0.50000  1.0000
  Mn  Mn64      1.0  0.75000  0.91667  0.58333  1.0000
  X   X355      1.0  0.70833  0.87500  0.54167  1.0000
  X   X356      1.0  0.79167  0.95833  0.62500  1.0000
  O   O179      1.0  0.66667  0.83333  0.66667  1.0000
  Mn  Mn65      1.0  0.75000  0.91667  0.75000  1.0000
  X   X357      1.0  0.70833  0.87500  0.70833  1.0000
  X   X358      1.0  0.79167  0.95833  0.79167  1.0000
  O   O180      1.0  0.66667  0.83333  0.83333  1.0000
  Li  Li115     1.0  0.75000  0.91667  0.91667  1.0000
  X   X359      1.0  0.70833  0.87500  0.87500  1.0000
  X   X360      1.0  0.79167  0.95833  0.95833  1.0000
  O   O181      1.0  0.83333  1.00000  1.00000  1.0000
  Li  Li116     1.0  0.91667  0.08333  0.08333  1.0000
  X   X361      1.0  0.87500  0.04167  0.04167  1.0000
  X   X362      1.0  0.95833  0.12500  0.12500  1.0000
  O   O182      1.0  0.83333  0.00000  0.16667  1.0000
  Li  Li117     1.0  0.91667  0.08333  0.25000  1.0000
  X   X363      1.0  0.87500  0.04167  0.20833  1.0000
  X   X364      1.0  0.95833  0.12500  0.29167  1.0000
  O   O183      1.0  0.83333  0.00000  0.33333  1.0000
  Li  Li118     1.0  0.91667  0.08333  0.41667  1.0000
  X   X365      1.0  0.87500  0.04167  0.37500  1.0000
  X   X366      1.0  0.95833  0.12500  0.45833  1.0000
  O   O184      1.0  0.83333  0.00000  0.50000  1.0000
  Li  Li119     1.0  0.91667  0.08333  0.58333  1.0000
  X   X367      1.0  0.87500  0.04167  0.54167  1.0000
  X   X368      1.0  0.95833  0.12500  0.62500  1.0000
  O   O185      1.0  0.83333  1.00000  0.66667  1.0000
  Mn  Mn66      1.0  0.91667  0.08333  0.75000  1.0000
  X   X369      1.0  0.87500  0.04167  0.70833  1.0000
  X   X370      1.0  0.95833  0.12500  0.79167  1.0000
  O   O186      1.0  0.83333  1.00000  0.83333  1.0000
  Li  Li120     1.0  0.91667  0.08333  0.91667  1.0000
  X   X371      1.0  0.87500  0.04167  0.87500  1.0000
  X   X372      1.0  0.95833  0.12500  0.95833  1.0000
  O   O187      1.0  0.83333  0.16667  1.00000  1.0000
  Mn  Mn67      1.0  0.91667  0.25000  0.08333  1.0000
  X   X373      1.0  0.87500  0.20833  0.04167  1.0000
  X   X374      1.0  0.95833  0.29167  0.12500  1.0000
  O   O188      1.0  0.83333  0.16667  0.16667  1.0000
  Li  Li121     1.0  0.91667  0.25000  0.25000  1.0000
  X   X375      1.0  0.87500  0.20833  0.20833  1.0000
  X   X376      1.0  0.95833  0.29167  0.29167  1.0000
  O   O189      1.0  0.83333  0.16667  0.33333  1.0000
  Li  Li122     1.0  0.91667  0.25000  0.41667  1.0000
  X   X377      1.0  0.87500  0.20833  0.37500  1.0000
  X   X378      1.0  0.95833  0.29167  0.45833  1.0000
  O   O190      1.0  0.83333  0.16667  0.50000  1.0000
  Li  Li123     1.0  0.91667  0.25000  0.58333  1.0000
  X   X379      1.0  0.87500  0.20833  0.54167  1.0000
  X   X380      1.0  0.95833  0.29167  0.62500  1.0000
  O   O191      1.0  0.83333  0.16667  0.66667  1.0000
  Li  Li124     1.0  0.91667  0.25000  0.75000  1.0000
  X   X381      1.0  0.87500  0.20833  0.70833  1.0000
  X   X382      1.0  0.95833  0.29167  0.79167  1.0000
  O   O192      1.0  0.83333  0.16667  0.83333  1.0000
  Li  Li125     1.0  0.91667  0.25000  0.91667  1.0000
  X   X383      1.0  0.87500  0.20833  0.87500  1.0000
  X   X384      1.0  0.95833  0.29167  0.95833  1.0000
  O   O193      1.0  0.83333  0.33333  1.00000  1.0000
  Li  Li126     1.0  0.91667  0.41667  0.08333  1.0000
  X   X385      1.0  0.87500  0.37500  0.04167  1.0000
  X   X386      1.0  0.95833  0.45833  0.12500  1.0000
  O   O194      1.0  0.83333  0.33333  0.16667  1.0000
  Li  Li127     1.0  0.91667  0.41667  0.25000  1.0000
  X   X387      1.0  0.87500  0.37500  0.20833  1.0000
  X   X388      1.0  0.95833  0.45833  0.29167  1.0000
  O   O195      1.0  0.83333  0.33333  0.33333  1.0000
  Li  Li128     1.0  0.91667  0.41667  0.41667  1.0000
  X   X389      1.0  0.87500  0.37500  0.37500  1.0000
  X   X390      1.0  0.95833  0.45833  0.45833  1.0000
  O   O196      1.0  0.83333  0.33333  0.50000  1.0000
  Li  Li129     1.0  0.91667  0.41667  0.58333  1.0000
  X   X391      1.0  0.87500  0.37500  0.54167  1.0000
  X   X392      1.0  0.95833  0.45833  0.62500  1.0000
  O   O197      1.0  0.83333  0.33333  0.66667  1.0000
  Li  Li130     1.0  0.91667  0.41667  0.75000  1.0000
  X   X393      1.0  0.87500  0.37500  0.70833  1.0000
  X   X394      1.0  0.95833  0.45833  0.79167  1.0000
  O   O198      1.0  0.83333  0.33333  0.83333  1.0000
  Li  Li131     1.0  0.91667  0.41667  0.91667  1.0000
  X   X395      1.0  0.87500  0.37500  0.87500  1.0000
  X   X396      1.0  0.95833  0.45833  0.95833  1.0000
  O   O199      1.0  0.83333  0.50000  1.00000  1.0000
  Li  Li132     1.0  0.91667  0.58333  0.08333  1.0000
  X   X397      1.0  0.87500  0.54167  0.04167  1.0000
  X   X398      1.0  0.95833  0.62500  0.12500  1.0000
  O   O200      1.0  0.83333  0.50000  0.16667  1.0000
  Li  Li133     1.0  0.91667  0.58333  0.25000  1.0000
  X   X399      1.0  0.87500  0.54167  0.20833  1.0000
  X   X400      1.0  0.95833  0.62500  0.29167  1.0000
  O   O201      1.0  0.83333  0.50000  0.33333  1.0000
  Mn  Mn68      1.0  0.91667  0.58333  0.41667  1.0000
  X   X401      1.0  0.87500  0.54167  0.37500  1.0000
  X   X402      1.0  0.95833  0.62500  0.45833  1.0000
  O   O202      1.0  0.83333  0.50000  0.50000  1.0000
  Mn  Mn69      1.0  0.91667  0.58333  0.58333  1.0000
  X   X403      1.0  0.87500  0.54167  0.54167  1.0000
  X   X404      1.0  0.95833  0.62500  0.62500  1.0000
  O   O203      1.0  0.83333  0.50000  0.66667  1.0000
  Li  Li134     1.0  0.91667  0.58333  0.75000  1.0000
  X   X405      1.0  0.87500  0.54167  0.70833  1.0000
  X   X406      1.0  0.95833  0.62500  0.79167  1.0000
  O   O204      1.0  0.83333  0.50000  0.83333  1.0000
  Li  Li135     1.0  0.91667  0.58333  0.91667  1.0000
  X   X407      1.0  0.87500  0.54167  0.87500  1.0000
  X   X408      1.0  0.95833  0.62500  0.95833  1.0000
  O   O205      1.0  0.83333  0.66667  1.00000  1.0000
  Li  Li136     1.0  0.91667  0.75000  0.08333  1.0000
  X   X409      1.0  0.87500  0.70833  0.04167  1.0000
  X   X410      1.0  0.95833  0.79167  0.12500  1.0000
  O   O206      1.0  0.83333  0.66667  0.16667  1.0000
  Li  Li137     1.0  0.91667  0.75000  0.25000  1.0000
  X   X411      1.0  0.87500  0.70833  0.20833  1.0000
  X   X412      1.0  0.95833  0.79167  0.29167  1.0000
  O   O207      1.0  0.83333  0.66667  0.33333  1.0000
  Mn  Mn70      1.0  0.91667  0.75000  0.41667  1.0000
  X   X413      1.0  0.87500  0.70833  0.37500  1.0000
  X   X414      1.0  0.95833  0.79167  0.45833  1.0000
  O   O208      1.0  0.83333  0.66667  0.50000  1.0000
  Li  Li138     1.0  0.91667  0.75000  0.58333  1.0000
  X   X415      1.0  0.87500  0.70833  0.54167  1.0000
  X   X416      1.0  0.95833  0.79167  0.62500  1.0000
  O   O209      1.0  0.83333  0.66667  0.66667  1.0000
  Li  Li139     1.0  0.91667  0.75000  0.75000  1.0000
  X   X417      1.0  0.87500  0.70833  0.70833  1.0000
  X   X418      1.0  0.95833  0.79167  0.79167  1.0000
  O   O210      1.0  0.83333  0.66667  0.83333  1.0000
  Mn  Mn71      1.0  0.91667  0.75000  0.91667  1.0000
  X   X419      1.0  0.87500  0.70833  0.87500  1.0000
  X   X420      1.0  0.95833  0.79167  0.95833  1.0000
  O   O211      1.0  0.83333  0.83333  1.00000  1.0000
  Li  Li140     1.0  0.91667  0.91667  0.08333  1.0000
  X   X421      1.0  0.87500  0.87500  0.04167  1.0000
  X   X422      1.0  0.95833  0.95833  0.12500  1.0000
  O   O212      1.0  0.83333  0.83333  0.16667  1.0000
  Li  Li141     1.0  0.91667  0.91667  0.25000  1.0000
  X   X423      1.0  0.87500  0.87500  0.20833  1.0000
  X   X424      1.0  0.95833  0.95833  0.29167  1.0000
  O   O213      1.0  0.83333  0.83333  0.33333  1.0000
  Li  Li142     1.0  0.91667  0.91667  0.41667  1.0000
  X   X425      1.0  0.87500  0.87500  0.37500  1.0000
  X   X426      1.0  0.95833  0.95833  0.45833  1.0000
  O   O214      1.0  0.83333  0.83333  0.50000  1.0000
  Li  Li143     1.0  0.91667  0.91667  0.58333  1.0000
  X   X427      1.0  0.87500  0.87500  0.54167  1.0000
  X   X428      1.0  0.95833  0.95833  0.62500  1.0000
  O   O215      1.0  0.83333  0.83333  0.66667  1.0000
  Mn  Mn72      1.0  0.91667  0.91667  0.75000  1.0000
  X   X429      1.0  0.87500  0.87500  0.70833  1.0000
  X   X430      1.0  0.95833  0.95833  0.79167  1.0000
  O   O216      1.0  0.83333  0.83333  0.83333  1.0000
  Li  Li144     1.0  0.91667  0.91667  0.91667  1.0000
  X   X431      1.0  0.87500  0.87500  0.87500  1.0000
  X   X432      1.0  0.95833  0.95833  0.95833  1.0000
